L24/1726533/Trafos.dss
! ==========================================================
! TRANSFORMADORES DE DISTRIBUICAO — gerados de UNTRMT/EQTRMT
! Secundario 1F/2F: 3 enrolamentos com derivacao central
! Neutro no no 4, aterrado em _ATERRAMENTO.dss
! Kv de BT conforme TEN_LIN_SE da BDGD
! ==========================================================
New Transformer.325064557_325246472 phases=3 windings=2 Xhl=4.900
~ wdg=1 bus=node_425769304.1.2.3 conn=delta Kv=13.8 Kva=300.0 %R=0.495
~ wdg=2 bus=node_420953326.1.2.3.4 conn=wye Kv=0.2200 Kva=300.0 %R=0.495
New Transformer.1070395510_1070395509 phases=3 windings=2 Xhl=4.900
~ wdg=1 bus=node_441154370.1.2.3 conn=delta Kv=13.8 Kva=300.0 %R=0.495
~ wdg=2 bus=node_1299072573.1.2.3.4 conn=wye Kv=0.2200 Kva=300.0 %R=0.495
New Transformer.1343150848_1343150847 phases=3 windings=2 Xhl=4.900
~ wdg=1 bus=node_722903612.1.2.3 conn=delta Kv=13.8 Kva=300.0 %R=0.495
~ wdg=2 bus=node_722903585.1.2.3.4 conn=wye Kv=0.2200 Kva=300.0 %R=0.495
New Transformer.2039581440_2039581439 phases=3 windings=2 Xhl=4.900
~ wdg=1 bus=node_108471756.1.2.3 conn=delta Kv=13.8 Kva=300.0 %R=0.495
~ wdg=2 bus=node_418189858.1.2.3.4 conn=wye Kv=0.2200 Kva=300.0 %R=0.495
New Transformer.324657854_1628576843 phases=3 windings=2 Xhl=4.900
~ wdg=1 bus=node_424151358.1.2.3 conn=delta Kv=13.8 Kva=300.0 %R=0.495
~ wdg=2 bus=node_418310675.1.2.3.4 conn=wye Kv=0.2200 Kva=300.0 %R=0.495
New Transformer.324658383_325188225 phases=3 windings=2 Xhl=4.900
~ wdg=1 bus=node_436396908.1.2.3 conn=delta Kv=13.8 Kva=300.0 %R=0.495
~ wdg=2 bus=node_420064216.1.2.3.4 conn=wye Kv=0.2200 Kva=300.0 %R=0.495
New Transformer.2560362505_2560362506 phases=3 windings=2 Xhl=4.900
~ wdg=1 bus=node_2713659161.1.2.3 conn=delta Kv=13.8 Kva=300.0 %R=0.495
~ wdg=2 bus=node_2713659154.1.2.3.4 conn=wye Kv=0.2200 Kva=300.0 %R=0.495
New Transformer.2300364708_2300364707 phases=3 windings=2 Xhl=3.840
~ wdg=1 bus=node_2501698501.1.2.3 conn=delta Kv=13.8 Kva=150.0 %R=0.565
~ wdg=2 bus=node_2501698357.1.2.3.4 conn=wye Kv=0.2200 Kva=150.0 %R=0.565
New Transformer.2465623454_2465623453 phases=3 windings=2 Xhl=3.840
~ wdg=1 bus=node_2626979082.1.2.3 conn=delta Kv=13.8 Kva=150.0 %R=0.565
~ wdg=2 bus=node_2907317131.1.2.3.4 conn=wye Kv=0.2200 Kva=150.0 %R=0.565
New Transformer.2670447450_2670447451 phases=3 windings=2 Xhl=3.840
~ wdg=1 bus=node_2840421488.1.2.3 conn=delta Kv=13.8 Kva=150.0 %R=0.565
~ wdg=2 bus=node_2840421478.1.2.3.4 conn=wye Kv=0.2200 Kva=150.0 %R=0.565
New Transformer.324658295_944675707 phases=3 windings=2 Xhl=3.840
~ wdg=1 bus=node_425769413.1.2.3 conn=delta Kv=13.8 Kva=150.0 %R=0.565
~ wdg=2 bus=node_420915632.1.2.3.4 conn=wye Kv=0.2200 Kva=150.0 %R=0.565
New Transformer.324495858_1553732404 phases=3 windings=2 Xhl=3.840
~ wdg=1 bus=node_440982425.1.2.3 conn=delta Kv=13.8 Kva=150.0 %R=0.565
~ wdg=2 bus=node_420609695.1.2.3.4 conn=wye Kv=0.2200 Kva=150.0 %R=0.565
New Transformer.324495218_325281070 phases=3 windings=2 Xhl=3.840
~ wdg=1 bus=node_424214472.1.2.3 conn=delta Kv=13.8 Kva=150.0 %R=0.565
~ wdg=2 bus=node_419000302.1.2.3.4 conn=wye Kv=0.2200 Kva=150.0 %R=0.565
New Transformer.1564059445_1564059444 phases=3 windings=2 Xhl=3.840
~ wdg=1 bus=node_439050391.1.2.3 conn=delta Kv=13.8 Kva=150.0 %R=0.565
~ wdg=2 bus=node_418332249.1.2.3.4 conn=wye Kv=0.2200 Kva=150.0 %R=0.565
New Transformer.1775448887_1775448886 phases=3 windings=2 Xhl=3.840
~ wdg=1 bus=node_2101221881.1.2.3 conn=delta Kv=13.8 Kva=150.0 %R=0.565
~ wdg=2 bus=node_2101221817.1.2.3.4 conn=wye Kv=0.2200 Kva=150.0 %R=0.565
New Transformer.1378919390_1378919389 phases=3 windings=2 Xhl=3.840
~ wdg=1 bus=node_1673693962.1.2.3 conn=delta Kv=13.8 Kva=150.0 %R=0.565
~ wdg=2 bus=node_1673693948.1.2.3.4 conn=wye Kv=0.2200 Kva=150.0 %R=0.565
New Transformer.324497466_325186181 phases=3 windings=2 Xhl=3.840
~ wdg=1 bus=node_424876755.1.2.3 conn=delta Kv=13.8 Kva=150.0 %R=0.565
~ wdg=2 bus=node_419142477.1.2.3.4 conn=wye Kv=0.2200 Kva=150.0 %R=0.565
New Transformer.324799214_2312864374 phases=3 windings=2 Xhl=3.840
~ wdg=1 bus=node_441312351.1.2.3 conn=delta Kv=13.8 Kva=150.0 %R=0.565
~ wdg=2 bus=node_456113429.1.2.3.4 conn=wye Kv=0.2200 Kva=150.0 %R=0.565
New Transformer.1034514848_1034514847 phases=3 windings=2 Xhl=3.840
~ wdg=1 bus=node_1301447163.1.2.3 conn=delta Kv=13.8 Kva=150.0 %R=0.565
~ wdg=2 bus=node_1301447149.1.2.3.4 conn=wye Kv=0.2200 Kva=150.0 %R=0.565
New Transformer.2178161632_2178161633 phases=3 windings=2 Xhl=3.840
~ wdg=1 bus=node_2484946473.1.2.3 conn=delta Kv=13.8 Kva=150.0 %R=0.565
~ wdg=2 bus=node_2484946460.1.2.3.4 conn=wye Kv=0.2200 Kva=150.0 %R=0.565
New Transformer.2164875986_2164875985 phases=3 windings=2 Xhl=3.840
~ wdg=1 bus=node_2473387069.1.2.3 conn=delta Kv=13.8 Kva=150.0 %R=0.565
~ wdg=2 bus=node_2473387046.1.2.3.4 conn=wye Kv=0.2200 Kva=150.0 %R=0.565
New Transformer.324658750_325217422 phases=3 windings=2 Xhl=3.840
~ wdg=1 bus=node_424215212.1.2.3 conn=delta Kv=13.8 Kva=112.5 %R=0.565
~ wdg=2 bus=node_418899316.1.2.3.4 conn=wye Kv=0.2200 Kva=112.5 %R=0.565
New Transformer.324203896_325185615 phases=3 windings=2 Xhl=3.840
~ wdg=1 bus=node_439705544.1.2.3 conn=delta Kv=13.8 Kva=112.5 %R=0.565
~ wdg=2 bus=node_418310609.1.2.3.4 conn=wye Kv=0.2200 Kva=112.5 %R=0.565
New Transformer.324940502_325218641 phases=3 windings=2 Xhl=3.840
~ wdg=1 bus=node_424182279.1.2.3 conn=delta Kv=13.8 Kva=112.5 %R=0.565
~ wdg=2 bus=node_418163323.1.2.3.4 conn=wye Kv=0.2200 Kva=112.5 %R=0.565
New Transformer.324657515_325187640 phases=3 windings=2 Xhl=3.840
~ wdg=1 bus=node_424215687.1.2.3 conn=delta Kv=13.8 Kva=112.5 %R=0.565
~ wdg=2 bus=node_418899064.1.2.3.4 conn=wye Kv=0.2200 Kva=112.5 %R=0.565
New Transformer.325064417_1123344758 phases=3 windings=2 Xhl=3.770
~ wdg=1 bus=node_424179396.1.2.3 conn=delta Kv=13.8 Kva=75.0 %R=0.670
~ wdg=2 bus=node_418310816.1.2.3.4 conn=wye Kv=0.2200 Kva=75.0 %R=0.670
New Transformer.325064972_325218576 phases=3 windings=2 Xhl=3.770
~ wdg=1 bus=node_424214437.1.2.3 conn=delta Kv=13.8 Kva=75.0 %R=0.670
~ wdg=2 bus=node_418899589.1.2.3.4 conn=wye Kv=0.2200 Kva=75.0 %R=0.670
New Transformer.325064949_325217421 phases=3 windings=2 Xhl=3.770
~ wdg=1 bus=node_424182433.1.2.3 conn=delta Kv=13.8 Kva=75.0 %R=0.670
~ wdg=2 bus=node_418899184.1.2.3.4 conn=wye Kv=0.2200 Kva=75.0 %R=0.670
New Transformer.325064999_1010021922 phases=3 windings=2 Xhl=3.770
~ wdg=1 bus=node_442558788.1.2.3 conn=delta Kv=13.8 Kva=75.0 %R=0.670
~ wdg=2 bus=node_418935930.1.2.3.4 conn=wye Kv=0.2200 Kva=75.0 %R=0.670
New Transformer.325065230_325217065 phases=3 windings=2 Xhl=3.770
~ wdg=1 bus=node_424180905.1.2.3 conn=delta Kv=13.8 Kva=75.0 %R=0.670
~ wdg=2 bus=node_418191250.1.2.3.4 conn=wye Kv=0.2200 Kva=75.0 %R=0.670
New Transformer.325065211_325326428 phases=3 windings=2 Xhl=3.770
~ wdg=1 bus=node_424876889.1.2.3 conn=delta Kv=13.8 Kva=75.0 %R=0.670
~ wdg=2 bus=node_419176630.1.2.3.4 conn=wye Kv=0.2200 Kva=75.0 %R=0.670
New Transformer.325065158_325186378 phases=3 windings=2 Xhl=3.770
~ wdg=1 bus=node_424268890.1.2.3 conn=delta Kv=13.8 Kva=75.0 %R=0.670
~ wdg=2 bus=node_418938663.1.2.3.4 conn=wye Kv=0.2200 Kva=75.0 %R=0.670
New Transformer.325065422_325187639 phases=3 windings=2 Xhl=3.770
~ wdg=1 bus=node_441315506.1.2.3 conn=delta Kv=13.8 Kva=75.0 %R=0.670
~ wdg=2 bus=node_418899727.1.2.3.4 conn=wye Kv=0.2200 Kva=75.0 %R=0.670
New Transformer.325065488_325248605 phases=3 windings=2 Xhl=3.770
~ wdg=1 bus=node_440316180.1.2.3 conn=delta Kv=13.8 Kva=75.0 %R=0.670
~ wdg=2 bus=node_457191688.1.2.3.4 conn=wye Kv=0.2200 Kva=75.0 %R=0.670
New Transformer.2168203944_2168203945 phases=3 windings=2 Xhl=3.770
~ wdg=1 bus=node_2476444584.1.2.3 conn=delta Kv=13.8 Kva=75.0 %R=0.670
~ wdg=2 bus=node_2476444593.1.2.3.4 conn=wye Kv=0.2200 Kva=75.0 %R=0.670
New Transformer.1039744958_1039744957 phases=3 windings=2 Xhl=3.770
~ wdg=1 bus=node_1306286696.1.2.3 conn=delta Kv=13.8 Kva=75.0 %R=0.670
~ wdg=2 bus=node_455813422.1.2.3.4 conn=wye Kv=0.2200 Kva=75.0 %R=0.670
New Transformer.2231510256_2564286759 phases=3 windings=2 Xhl=3.770
~ wdg=1 bus=node_424182478.1.2.3 conn=delta Kv=13.8 Kva=75.0 %R=0.670
~ wdg=2 bus=node_455814398.1.2.3.4 conn=wye Kv=0.2200 Kva=75.0 %R=0.670
New Transformer.2231634921_2448593384 phases=3 windings=2 Xhl=3.770
~ wdg=1 bus=node_2537264759.1.2.3 conn=delta Kv=13.8 Kva=75.0 %R=0.670
~ wdg=2 bus=node_2537264747.1.2.3.4 conn=wye Kv=0.2200 Kva=75.0 %R=0.670
New Transformer.1051798235_1051798236 phases=3 windings=2 Xhl=3.770
~ wdg=1 bus=node_1205987177.1.2.3 conn=delta Kv=13.8 Kva=75.0 %R=0.670
~ wdg=2 bus=node_1205987163.1.2.3.4 conn=wye Kv=0.2200 Kva=75.0 %R=0.670
New Transformer.2286490650_2286490649 phases=3 windings=2 Xhl=3.770
~ wdg=1 bus=node_2572582709.1.2.3 conn=delta Kv=13.8 Kva=75.0 %R=0.670
~ wdg=2 bus=node_2572582696.1.2.3.4 conn=wye Kv=0.2200 Kva=75.0 %R=0.670
New Transformer.324658677_434243632 phases=3 windings=2 Xhl=3.770
~ wdg=1 bus=node_440821037.1.2.3 conn=delta Kv=13.8 Kva=75.0 %R=0.670
~ wdg=2 bus=node_418865274.1.2.3.4 conn=wye Kv=0.2200 Kva=75.0 %R=0.670
New Transformer.324658739_325068370 phases=3 windings=2 Xhl=3.770
~ wdg=1 bus=node_427471591.1.2.3 conn=delta Kv=13.8 Kva=75.0 %R=0.670
~ wdg=2 bus=node_420905166.1.2.3.4 conn=wye Kv=0.2200 Kva=75.0 %R=0.670
New Transformer.2258274822_2258274823 phases=3 windings=2 Xhl=3.770
~ wdg=1 bus=node_2559803872.1.2.3 conn=delta Kv=13.8 Kva=75.0 %R=0.670
~ wdg=2 bus=node_2559803784.1.2.3.4 conn=wye Kv=0.2200 Kva=75.0 %R=0.670
New Transformer.324658799_2199915407 phases=3 windings=2 Xhl=3.770
~ wdg=1 bus=node_425420765.1.2.3 conn=delta Kv=13.8 Kva=75.0 %R=0.670
~ wdg=2 bus=node_422744251.1.2.3.4 conn=wye Kv=0.2200 Kva=75.0 %R=0.670
New Transformer.324658752_325066948 phases=3 windings=2 Xhl=3.770
~ wdg=1 bus=node_425769459.1.2.3 conn=delta Kv=13.8 Kva=75.0 %R=0.670
~ wdg=2 bus=node_420932068.1.2.3.4 conn=wye Kv=0.2200 Kva=75.0 %R=0.670
New Transformer.2242833540_2242833541 phases=3 windings=2 Xhl=3.770
~ wdg=1 bus=node_2549339278.1.2.3 conn=delta Kv=13.8 Kva=75.0 %R=0.670
~ wdg=2 bus=node_2549339260.1.2.3.4 conn=wye Kv=0.2200 Kva=75.0 %R=0.670
New Transformer.324659666_325326818 phases=3 windings=2 Xhl=3.770
~ wdg=1 bus=node_441152935.1.2.3 conn=delta Kv=13.8 Kva=75.0 %R=0.670
~ wdg=2 bus=node_418900768.1.2.3.4 conn=wye Kv=0.2200 Kva=75.0 %R=0.670
New Transformer.324659657_325218005 phases=3 windings=2 Xhl=3.770
~ wdg=1 bus=node_439050826.1.2.3 conn=delta Kv=13.8 Kva=75.0 %R=0.670
~ wdg=2 bus=node_418310858.1.2.3.4 conn=wye Kv=0.2200 Kva=75.0 %R=0.670
New Transformer.324660044_1053571625 phases=3 windings=2 Xhl=3.770
~ wdg=1 bus=node_1320181899.1.2.3 conn=delta Kv=13.8 Kva=75.0 %R=0.670
~ wdg=2 bus=node_1320181874.1.2.3.4 conn=wye Kv=0.2200 Kva=75.0 %R=0.670
New Transformer.324660588_450303192 phases=3 windings=2 Xhl=3.770
~ wdg=1 bus=node_440315980.1.2.3 conn=delta Kv=13.8 Kva=75.0 %R=0.670
~ wdg=2 bus=node_418171640.1.2.3.4 conn=wye Kv=0.2200 Kva=75.0 %R=0.670
New Transformer.324659955_325218630 phases=3 windings=2 Xhl=3.770
~ wdg=1 bus=node_440161951.1.2.3 conn=delta Kv=13.8 Kva=75.0 %R=0.670
~ wdg=2 bus=node_418163521.1.2.3.4 conn=wye Kv=0.2200 Kva=75.0 %R=0.670
New Transformer.324659963_1867288884 phases=3 windings=2 Xhl=3.770
~ wdg=1 bus=node_440821897.1.2.3 conn=delta Kv=13.8 Kva=75.0 %R=0.670
~ wdg=2 bus=node_420371544.1.2.3.4 conn=wye Kv=0.2200 Kva=75.0 %R=0.670
New Transformer.2373959538_2373959539 phases=3 windings=2 Xhl=3.770
~ wdg=1 bus=node_2541602305.1.2.3 conn=delta Kv=13.8 Kva=75.0 %R=0.670
~ wdg=2 bus=node_2541602292.1.2.3.4 conn=wye Kv=0.2200 Kva=75.0 %R=0.670
New Transformer.1115530773_1115530772 phases=3 windings=2 Xhl=3.770
~ wdg=1 bus=node_1476612430.1.2.3 conn=delta Kv=13.8 Kva=75.0 %R=0.670
~ wdg=2 bus=node_1476612377.1.2.3.4 conn=wye Kv=0.2200 Kva=75.0 %R=0.670
New Transformer.324660676_325066983 phases=3 windings=2 Xhl=3.770
~ wdg=1 bus=node_424214667.1.2.3 conn=delta Kv=13.8 Kva=75.0 %R=0.670
~ wdg=2 bus=node_420950230.1.2.3.4 conn=wye Kv=0.2200 Kva=75.0 %R=0.670
New Transformer.2505265726_2505265729 phases=3 windings=2 Xhl=3.770
~ wdg=1 bus=node_2662482099.1.2.3 conn=delta Kv=13.8 Kva=75.0 %R=0.670
~ wdg=2 bus=node_2662482089.1.2.3.4 conn=wye Kv=0.2200 Kva=75.0 %R=0.670
New Transformer.791643102_791643101 phases=3 windings=2 Xhl=3.770
~ wdg=1 bus=node_1063961164.1.2.3 conn=delta Kv=13.8 Kva=75.0 %R=0.670
~ wdg=2 bus=node_1063959518a.1.2.3.4 conn=wye Kv=0.2200 Kva=75.0 %R=0.670
New Transformer.791643160_791643159 phases=3 windings=2 Xhl=3.770
~ wdg=1 bus=node_1063960880.1.2.3 conn=delta Kv=13.8 Kva=75.0 %R=0.670
~ wdg=2 bus=node_1063959219.1.2.3.4 conn=wye Kv=0.2200 Kva=75.0 %R=0.670
New Transformer.791643170_791643169 phases=3 windings=2 Xhl=3.770
~ wdg=1 bus=node_1063961114.1.2.3 conn=delta Kv=13.8 Kva=75.0 %R=0.670
~ wdg=2 bus=node_1063958849.1.2.3.4 conn=wye Kv=0.2200 Kva=75.0 %R=0.670
New Transformer.330773699_1787858429 phases=3 windings=2 Xhl=3.770
~ wdg=1 bus=node_429436526.1.2.3 conn=delta Kv=13.8 Kva=75.0 %R=0.670
~ wdg=2 bus=node_418966446.1.2.3.4 conn=wye Kv=0.2200 Kva=75.0 %R=0.670
New Transformer.808255379_808255378 phases=3 windings=2 Xhl=3.770
~ wdg=1 bus=node_1079674993.1.2.3 conn=delta Kv=13.8 Kva=75.0 %R=0.670
~ wdg=2 bus=node_1079674816.1.2.3.4 conn=wye Kv=0.2200 Kva=75.0 %R=0.670
New Transformer.1161282270_1161282269 phases=3 windings=2 Xhl=3.770
~ wdg=1 bus=node_1432933620.1.2.3 conn=delta Kv=13.8 Kva=75.0 %R=0.670
~ wdg=2 bus=node_1432933610.1.2.3.4 conn=wye Kv=0.2200 Kva=75.0 %R=0.670
New Transformer.331241238_2037726289 phases=3 windings=2 Xhl=3.770
~ wdg=1 bus=node_437549629.1.2.3 conn=delta Kv=13.8 Kva=75.0 %R=0.670
~ wdg=2 bus=node_422743351.1.2.3.4 conn=wye Kv=0.2200 Kva=75.0 %R=0.670
New Transformer.331240979_2057603253 phases=3 windings=2 Xhl=3.770
~ wdg=1 bus=node_437191786.1.2.3 conn=delta Kv=13.8 Kva=75.0 %R=0.670
~ wdg=2 bus=node_422740714.1.2.3.4 conn=wye Kv=0.2200 Kva=75.0 %R=0.670
New Transformer.727128832_727128831 phases=3 windings=2 Xhl=3.770
~ wdg=1 bus=node_1000931480.1.2.3 conn=delta Kv=13.8 Kva=75.0 %R=0.670
~ wdg=2 bus=node_1000931429.1.2.3.4 conn=wye Kv=0.2200 Kva=75.0 %R=0.670
New Transformer.324798445_325216715 phases=3 windings=2 Xhl=3.770
~ wdg=1 bus=node_439866542.1.2.3 conn=delta Kv=13.8 Kva=75.0 %R=0.670
~ wdg=2 bus=node_418333572.1.2.3.4 conn=wye Kv=0.2200 Kva=75.0 %R=0.670
New Transformer.324798610_325283131 phases=3 windings=2 Xhl=3.770
~ wdg=1 bus=node_424150184.1.2.3 conn=delta Kv=13.8 Kva=75.0 %R=0.670
~ wdg=2 bus=node_418311317.1.2.3.4 conn=wye Kv=0.2200 Kva=75.0 %R=0.670
New Transformer.324799641_325067960 phases=3 windings=2 Xhl=3.770
~ wdg=1 bus=node_441313426.1.2.3 conn=delta Kv=13.8 Kva=75.0 %R=0.670
~ wdg=2 bus=node_513297070.1.2.3.4 conn=wye Kv=0.2200 Kva=75.0 %R=0.670
New Transformer.762086287_762086286 phases=3 windings=2 Xhl=3.770
~ wdg=1 bus=node_431033257.1.2.3 conn=delta Kv=13.8 Kva=75.0 %R=0.670
~ wdg=2 bus=node_420949438.1.2.3.4 conn=wye Kv=0.2200 Kva=75.0 %R=0.670
New Transformer.324202941_325066401 phases=3 windings=2 Xhl=3.770
~ wdg=1 bus=node_424214612.1.2.3 conn=delta Kv=13.8 Kva=75.0 %R=0.670
~ wdg=2 bus=node_418899475.1.2.3.4 conn=wye Kv=0.2200 Kva=75.0 %R=0.670
New Transformer.324202790_325066410 phases=3 windings=2 Xhl=3.770
~ wdg=1 bus=node_441313465.1.2.3 conn=delta Kv=13.8 Kva=75.0 %R=0.670
~ wdg=2 bus=node_418899556.1.2.3.4 conn=wye Kv=0.2200 Kva=75.0 %R=0.670
New Transformer.324798958_1981393302 phases=3 windings=2 Xhl=3.770
~ wdg=1 bus=node_440011108.1.2.3 conn=delta Kv=13.8 Kva=75.0 %R=0.670
~ wdg=2 bus=node_420408580.1.2.3.4 conn=wye Kv=0.2200 Kva=75.0 %R=0.670
New Transformer.324799239_1113228400 phases=3 windings=2 Xhl=3.770
~ wdg=1 bus=node_440010668.1.2.3 conn=delta Kv=13.8 Kva=75.0 %R=0.670
~ wdg=2 bus=node_418865391.1.2.3.4 conn=wye Kv=0.2200 Kva=75.0 %R=0.670
New Transformer.324799353_325187480 phases=3 windings=2 Xhl=3.770
~ wdg=1 bus=node_439221292.1.2.3 conn=delta Kv=13.8 Kva=75.0 %R=0.670
~ wdg=2 bus=node_418174379.1.2.3.4 conn=wye Kv=0.2200 Kva=75.0 %R=0.670
New Transformer.324799308_325068395 phases=3 windings=2 Xhl=3.770
~ wdg=1 bus=node_425769823.1.2.3 conn=delta Kv=13.8 Kva=75.0 %R=0.670
~ wdg=2 bus=node_420917543.1.2.3.4 conn=wye Kv=0.2200 Kva=75.0 %R=0.670
New Transformer.324799407_325185607 phases=3 windings=2 Xhl=3.770
~ wdg=1 bus=node_426981863.1.2.3 conn=delta Kv=13.8 Kva=75.0 %R=0.670
~ wdg=2 bus=node_418310501.1.2.3.4 conn=wye Kv=0.2200 Kva=75.0 %R=0.670
New Transformer.324799198_325281986 phases=3 windings=2 Xhl=3.770
~ wdg=1 bus=node_425769349.1.2.3 conn=delta Kv=13.8 Kva=75.0 %R=0.670
~ wdg=2 bus=node_420798257.1.2.3.4 conn=wye Kv=0.2200 Kva=75.0 %R=0.670
New Transformer.1235066085_1235066084 phases=3 windings=2 Xhl=3.770
~ wdg=1 bus=node_1531695611.1.2.3 conn=delta Kv=13.8 Kva=75.0 %R=0.670
~ wdg=2 bus=node_1531695622.1.2.3.4 conn=wye Kv=0.2200 Kva=75.0 %R=0.670
New Transformer.324203283_1873081465 phases=3 windings=2 Xhl=3.770
~ wdg=1 bus=node_424216932.1.2.3 conn=delta Kv=13.8 Kva=75.0 %R=0.670
~ wdg=2 bus=node_419603008.1.2.3.4 conn=wye Kv=0.2200 Kva=75.0 %R=0.670
New Transformer.324799756_1447748433 phases=3 windings=2 Xhl=3.770
~ wdg=1 bus=node_424180236.1.2.3 conn=delta Kv=13.8 Kva=75.0 %R=0.670
~ wdg=2 bus=node_420145848.1.2.3.4 conn=wye Kv=0.2200 Kva=75.0 %R=0.670
New Transformer.324800142_325066396 phases=3 windings=2 Xhl=3.770
~ wdg=1 bus=node_424213897.1.2.3 conn=delta Kv=13.8 Kva=75.0 %R=0.670
~ wdg=2 bus=node_418938786.1.2.3.4 conn=wye Kv=0.2200 Kva=75.0 %R=0.670
New Transformer.324801000_325218367 phases=3 windings=2 Xhl=3.770
~ wdg=1 bus=node_424876930.1.2.3 conn=delta Kv=13.8 Kva=75.0 %R=0.670
~ wdg=2 bus=node_419145798.1.2.3.4 conn=wye Kv=0.2200 Kva=75.0 %R=0.670
New Transformer.324203021_325217402 phases=3 windings=2 Xhl=3.770
~ wdg=1 bus=node_425420780.1.2.3 conn=delta Kv=13.8 Kva=75.0 %R=0.670
~ wdg=2 bus=node_422744215.1.2.3.4 conn=wye Kv=0.2200 Kva=75.0 %R=0.670
New Transformer.324204222_325326648 phases=3 windings=2 Xhl=3.770
~ wdg=1 bus=node_440983455.1.2.3 conn=delta Kv=13.8 Kva=75.0 %R=0.670
~ wdg=2 bus=node_419144265.1.2.3.4 conn=wye Kv=0.2200 Kva=75.0 %R=0.670
New Transformer.1614548332_1614548331 phases=3 windings=2 Xhl=3.770
~ wdg=1 bus=node_1935305849.1.2.3 conn=delta Kv=13.8 Kva=75.0 %R=0.670
~ wdg=2 bus=node_1935305835.1.2.3.4 conn=wye Kv=0.2200 Kva=75.0 %R=0.670
New Transformer.324800586_325281280 phases=3 windings=2 Xhl=3.770
~ wdg=1 bus=node_439223907.1.2.3 conn=delta Kv=13.8 Kva=75.0 %R=0.670
~ wdg=2 bus=node_418163308.1.2.3.4 conn=wye Kv=0.2200 Kva=75.0 %R=0.670
New Transformer.324800641_1256437284 phases=3 windings=2 Xhl=3.770
~ wdg=1 bus=node_424151733.1.2.3 conn=delta Kv=13.8 Kva=75.0 %R=0.670
~ wdg=2 bus=node_418938891.1.2.3.4 conn=wye Kv=0.2200 Kva=75.0 %R=0.670
New Transformer.324800899_325218040 phases=3 windings=2 Xhl=3.770
~ wdg=1 bus=node_441315136.1.2.3 conn=delta Kv=13.8 Kva=75.0 %R=0.670
~ wdg=2 bus=node_419637257.1.2.3.4 conn=wye Kv=0.2200 Kva=75.0 %R=0.670
New Transformer.324203632_325248538 phases=3 windings=2 Xhl=3.770
~ wdg=1 bus=node_441313096.1.2.3 conn=delta Kv=13.8 Kva=75.0 %R=0.670
~ wdg=2 bus=node_418936092.1.2.3.4 conn=wye Kv=0.2200 Kva=75.0 %R=0.670
New Transformer.324203689_325245043 phases=3 windings=2 Xhl=3.770
~ wdg=1 bus=node_424213436.1.2.3 conn=delta Kv=13.8 Kva=75.0 %R=0.670
~ wdg=2 bus=node_420952858.1.2.3.4 conn=wye Kv=0.2200 Kva=75.0 %R=0.670
New Transformer.324203434_325245202 phases=3 windings=2 Xhl=3.770
~ wdg=1 bus=node_434525932.1.2.3 conn=delta Kv=13.8 Kva=75.0 %R=0.670
~ wdg=2 bus=node_420905310.1.2.3.4 conn=wye Kv=0.2200 Kva=75.0 %R=0.670
New Transformer.324203104_991849821 phases=3 windings=2 Xhl=3.770
~ wdg=1 bus=node_424152023.1.2.3 conn=delta Kv=13.8 Kva=75.0 %R=0.670
~ wdg=2 bus=node_418312502.1.2.3.4 conn=wye Kv=0.2200 Kva=75.0 %R=0.670
New Transformer.324204478_325217464 phases=3 windings=2 Xhl=3.770
~ wdg=1 bus=node_425769464.1.2.3 conn=delta Kv=13.8 Kva=75.0 %R=0.670
~ wdg=2 bus=node_418938720.1.2.3.4 conn=wye Kv=0.2200 Kva=75.0 %R=0.670
New Transformer.324204427_325218638 phases=3 windings=2 Xhl=3.770
~ wdg=1 bus=node_424112426.1.2.3 conn=delta Kv=13.8 Kva=75.0 %R=0.670
~ wdg=2 bus=node_418156725.1.2.3.4 conn=wye Kv=0.2200 Kva=75.0 %R=0.670
New Transformer.1626219627_1626219626 phases=3 windings=2 Xhl=3.770
~ wdg=1 bus=node_440013940.1.2.3 conn=delta Kv=13.8 Kva=75.0 %R=0.670
~ wdg=2 bus=node_449194379.1.2.3.4 conn=wye Kv=0.2200 Kva=75.0 %R=0.670
New Transformer.1633201514_1633201515 phases=3 windings=2 Xhl=3.770
~ wdg=1 bus=node_1953237701.1.2.3 conn=delta Kv=13.8 Kva=75.0 %R=0.670
~ wdg=2 bus=node_1953237724.1.2.3.4 conn=wye Kv=0.2200 Kva=75.0 %R=0.670
New Transformer.324801509_2537634320 phases=3 windings=2 Xhl=4.960
~ wdg=1 bus=node_431199127.1.2.3 conn=delta Kv=13.8 Kva=75.0 %R=0.305
~ wdg=2 bus=node_418899700.1.2.3.4 conn=wye Kv=0.2200 Kva=75.0 %R=0.305
New Transformer.1396649426_1396649425 phases=3 windings=2 Xhl=3.770
~ wdg=1 bus=node_1691604533.1.2.3 conn=delta Kv=13.8 Kva=75.0 %R=0.670
~ wdg=2 bus=node_1691604518.1.2.3.4 conn=wye Kv=0.2200 Kva=75.0 %R=0.670
New Transformer.324801049_325218586 phases=3 windings=2 Xhl=3.770
~ wdg=1 bus=node_424216912.1.2.3 conn=delta Kv=13.8 Kva=75.0 %R=0.670
~ wdg=2 bus=node_418898842.1.2.3.4 conn=wye Kv=0.2200 Kva=75.0 %R=0.670
New Transformer.324203863_325186303 phases=3 windings=2 Xhl=3.770
~ wdg=1 bus=node_431196343.1.2.3 conn=delta Kv=13.8 Kva=75.0 %R=0.670
~ wdg=2 bus=node_419001217.1.2.3.4 conn=wye Kv=0.2200 Kva=75.0 %R=0.670
New Transformer.324801371_325281957 phases=3 windings=2 Xhl=3.770
~ wdg=1 bus=node_427138515.1.2.3 conn=delta Kv=13.8 Kva=75.0 %R=0.670
~ wdg=2 bus=node_423054393.1.2.3.4 conn=wye Kv=0.2200 Kva=75.0 %R=0.670
New Transformer.324204343_1662357694 phases=3 windings=2 Xhl=3.770
~ wdg=1 bus=node_424215162.1.2.3 conn=delta Kv=13.8 Kva=75.0 %R=0.670
~ wdg=2 bus=node_418899604.1.2.3.4 conn=wye Kv=0.2200 Kva=75.0 %R=0.670
New Transformer.324204060_325218363 phases=3 windings=2 Xhl=3.770
~ wdg=1 bus=node_424149596.1.2.3 conn=delta Kv=13.8 Kva=75.0 %R=0.670
~ wdg=2 bus=node_418190392.1.2.3.4 conn=wye Kv=0.2200 Kva=75.0 %R=0.670
New Transformer.324203975_325281241 phases=3 windings=2 Xhl=3.770
~ wdg=1 bus=node_424181620.1.2.3 conn=delta Kv=13.8 Kva=75.0 %R=0.670
~ wdg=2 bus=node_418898875.1.2.3.4 conn=wye Kv=0.2200 Kva=75.0 %R=0.670
New Transformer.324205227_325218624 phases=3 windings=2 Xhl=3.770
~ wdg=1 bus=node_424268760.1.2.3 conn=delta Kv=13.8 Kva=75.0 %R=0.670
~ wdg=2 bus=node_418938798.1.2.3.4 conn=wye Kv=0.2200 Kva=75.0 %R=0.670
New Transformer.1892143935_1892143934 phases=3 windings=2 Xhl=3.770
~ wdg=1 bus=node_2212876937.1.2.3 conn=delta Kv=13.8 Kva=75.0 %R=0.670
~ wdg=2 bus=node_2212876924.1.2.3.4 conn=wye Kv=0.2200 Kva=75.0 %R=0.670
New Transformer.324205038_325281207 phases=3 windings=2 Xhl=3.770
~ wdg=1 bus=node_439539067.1.2.3 conn=delta Kv=13.8 Kva=75.0 %R=0.670
~ wdg=2 bus=node_418163326.1.2.3.4 conn=wye Kv=0.2200 Kva=75.0 %R=0.670
New Transformer.324801710_325218583 phases=3 windings=2 Xhl=3.770
~ wdg=1 bus=node_424182404.1.2.3 conn=delta Kv=13.8 Kva=75.0 %R=0.670
~ wdg=2 bus=node_418899055.1.2.3.4 conn=wye Kv=0.2200 Kva=75.0 %R=0.670
New Transformer.324801944_2263187072 phases=3 windings=2 Xhl=3.770
~ wdg=1 bus=node_425420669.1.2.3 conn=delta Kv=13.8 Kva=75.0 %R=0.670
~ wdg=2 bus=node_419995211.1.2.3.4 conn=wye Kv=0.2200 Kva=75.0 %R=0.670
New Transformer.324801802_325186282 phases=3 windings=2 Xhl=3.770
~ wdg=1 bus=node_424215266.1.2.3 conn=delta Kv=13.8 Kva=75.0 %R=0.670
~ wdg=2 bus=node_419001670.1.2.3.4 conn=wye Kv=0.2200 Kva=75.0 %R=0.670
New Transformer.324801787_325186283 phases=3 windings=2 Xhl=3.770
~ wdg=1 bus=node_424214117.1.2.3 conn=delta Kv=13.8 Kva=75.0 %R=0.670
~ wdg=2 bus=node_419000470.1.2.3.4 conn=wye Kv=0.2200 Kva=75.0 %R=0.670
New Transformer.324802006_2661812976 phases=3 windings=2 Xhl=3.770
~ wdg=1 bus=node_2840018895.1.2.3 conn=delta Kv=13.8 Kva=75.0 %R=0.670
~ wdg=2 bus=node_2840018856.1.2.3.4 conn=wye Kv=0.2200 Kva=75.0 %R=0.670
New Transformer.324802108_325215385 phases=3 windings=2 Xhl=3.770
~ wdg=1 bus=node_426809899.1.2.3 conn=delta Kv=13.8 Kva=75.0 %R=0.670
~ wdg=2 bus=node_419992238.1.2.3.4 conn=wye Kv=0.2200 Kva=75.0 %R=0.670
New Transformer.324939956_325218637 phases=3 windings=2 Xhl=3.770
~ wdg=1 bus=node_439704519.1.2.3 conn=delta Kv=13.8 Kva=75.0 %R=0.670
~ wdg=2 bus=node_418965726.1.2.3.4 conn=wye Kv=0.2200 Kva=75.0 %R=0.670
New Transformer.324204444_325248537 phases=3 windings=2 Xhl=3.770
~ wdg=1 bus=node_424214987.1.2.3 conn=delta Kv=13.8 Kva=75.0 %R=0.670
~ wdg=2 bus=node_418899031.1.2.3.4 conn=wye Kv=0.2200 Kva=75.0 %R=0.670
New Transformer.324204639_1810067016 phases=3 windings=2 Xhl=3.770
~ wdg=1 bus=node_424182619.1.2.3 conn=delta Kv=13.8 Kva=75.0 %R=0.670
~ wdg=2 bus=node_418312313.1.2.3.4 conn=wye Kv=0.2200 Kva=75.0 %R=0.670
New Transformer.324940106_325217441 phases=3 windings=2 Xhl=3.770
~ wdg=1 bus=node_424215067.1.2.3 conn=delta Kv=13.8 Kva=75.0 %R=0.670
~ wdg=2 bus=node_418899598.1.2.3.4 conn=wye Kv=0.2200 Kva=75.0 %R=0.670
New Transformer.324205581_325326770 phases=3 windings=2 Xhl=3.770
~ wdg=1 bus=node_424178646.1.2.3 conn=delta Kv=13.8 Kva=75.0 %R=0.670
~ wdg=2 bus=node_418158147.1.2.3.4 conn=wye Kv=0.2200 Kva=75.0 %R=0.670
New Transformer.324940617_325215420 phases=3 windings=2 Xhl=3.770
~ wdg=1 bus=node_431033087.1.2.3 conn=delta Kv=13.8 Kva=75.0 %R=0.670
~ wdg=2 bus=node_420904251.1.2.3.4 conn=wye Kv=0.2200 Kva=75.0 %R=0.670
New Transformer.324940436_325186882 phases=3 windings=2 Xhl=3.770
~ wdg=1 bus=node_439050636.1.2.3 conn=delta Kv=13.8 Kva=75.0 %R=0.670
~ wdg=2 bus=node_418311197.1.2.3.4 conn=wye Kv=0.2200 Kva=75.0 %R=0.670
New Transformer.324205549_325187635 phases=3 windings=2 Xhl=3.770
~ wdg=1 bus=node_424268875.1.2.3 conn=delta Kv=13.8 Kva=75.0 %R=0.670
~ wdg=2 bus=node_75787238.1.2.3.4 conn=wye Kv=0.2200 Kva=75.0 %R=0.670
New Transformer.324940191_1138000344 phases=3 windings=2 Xhl=3.770
~ wdg=1 bus=node_424182364.1.2.3 conn=delta Kv=13.8 Kva=75.0 %R=0.670
~ wdg=2 bus=node_418899370.1.2.3.4 conn=wye Kv=0.2200 Kva=75.0 %R=0.670
New Transformer.324205121_1447748272 phases=3 windings=2 Xhl=3.770
~ wdg=1 bus=node_424180206.1.2.3 conn=delta Kv=13.8 Kva=75.0 %R=0.670
~ wdg=2 bus=node_420145911.1.2.3.4 conn=wye Kv=0.2200 Kva=75.0 %R=0.670
New Transformer.1442625167_1442625166 phases=3 windings=2 Xhl=3.770
~ wdg=1 bus=node_1738885463.1.2.3 conn=delta Kv=13.8 Kva=75.0 %R=0.670
~ wdg=2 bus=node_1327297553.1.2.3.4 conn=wye Kv=0.2200 Kva=75.0 %R=0.670
New Transformer.1341583037_1341583036 phases=3 windings=2 Xhl=3.770
~ wdg=1 bus=node_424215152.1.2.3 conn=delta Kv=13.8 Kva=75.0 %R=0.670
~ wdg=2 bus=node_418900912.1.2.3.4 conn=wye Kv=0.2200 Kva=75.0 %R=0.670
New Transformer.324940996_325326604 phases=3 windings=2 Xhl=3.770
~ wdg=1 bus=node_425770542.1.2.3 conn=delta Kv=13.8 Kva=75.0 %R=0.670
~ wdg=2 bus=node_471461943.1.2.3.4 conn=wye Kv=0.2200 Kva=75.0 %R=0.670
New Transformer.324940956_325281239 phases=3 windings=2 Xhl=3.770
~ wdg=1 bus=node_424182733.1.2.3 conn=delta Kv=13.8 Kva=75.0 %R=0.670
~ wdg=2 bus=node_418898890.1.2.3.4 conn=wye Kv=0.2200 Kva=75.0 %R=0.670
New Transformer.324940867_325066441 phases=3 windings=2 Xhl=3.770
~ wdg=1 bus=node_424178526.1.2.3 conn=delta Kv=13.8 Kva=75.0 %R=0.670
~ wdg=2 bus=node_418939032.1.2.3.4 conn=wye Kv=0.2200 Kva=75.0 %R=0.670
New Transformer.1658089504_1658089503 phases=3 windings=2 Xhl=3.770
~ wdg=1 bus=node_1979199137.1.2.3 conn=delta Kv=13.8 Kva=75.0 %R=0.670
~ wdg=2 bus=node_1979199122.1.2.3.4 conn=wye Kv=0.2200 Kva=75.0 %R=0.670
New Transformer.324941573_325186365 phases=3 windings=2 Xhl=3.770
~ wdg=1 bus=node_424182768.1.2.3 conn=delta Kv=13.8 Kva=75.0 %R=0.670
~ wdg=2 bus=node_418898884.1.2.3.4 conn=wye Kv=0.2200 Kva=75.0 %R=0.670
New Transformer.324941981_2278052893 phases=3 windings=2 Xhl=3.770
~ wdg=1 bus=node_441312836.1.2.3 conn=delta Kv=13.8 Kva=75.0 %R=0.670
~ wdg=2 bus=node_418899595.1.2.3.4 conn=wye Kv=0.2200 Kva=75.0 %R=0.670
New Transformer.324941882_325066424 phases=3 windings=2 Xhl=3.770
~ wdg=1 bus=node_439867256.1.2.3 conn=delta Kv=13.8 Kva=75.0 %R=0.670
~ wdg=2 bus=node_418936536.1.2.3.4 conn=wye Kv=0.2200 Kva=75.0 %R=0.670
New Transformer.324941732_325066405 phases=3 windings=2 Xhl=3.770
~ wdg=1 bus=node_424215052.1.2.3 conn=delta Kv=13.8 Kva=75.0 %R=0.670
~ wdg=2 bus=node_418899721.1.2.3.4 conn=wye Kv=0.2200 Kva=75.0 %R=0.670
New Transformer.324942516_325186380 phases=3 windings=2 Xhl=3.770
~ wdg=1 bus=node_425770817.1.2.3 conn=delta Kv=13.8 Kva=75.0 %R=0.670
~ wdg=2 bus=node_418938669.1.2.3.4 conn=wye Kv=0.2200 Kva=75.0 %R=0.670
New Transformer.324942069_325185491 phases=3 windings=2 Xhl=3.770
~ wdg=1 bus=node_439384998.1.2.3 conn=delta Kv=13.8 Kva=75.0 %R=0.670
~ wdg=2 bus=node_418417333.1.2.3.4 conn=wye Kv=0.2200 Kva=75.0 %R=0.670
New Transformer.324942026_1132151945 phases=3 windings=2 Xhl=3.770
~ wdg=1 bus=node_441314111.1.2.3 conn=delta Kv=13.8 Kva=75.0 %R=0.670
~ wdg=2 bus=node_418865340.1.2.3.4 conn=wye Kv=0.2200 Kva=75.0 %R=0.670
New Transformer.324942158_325187283 phases=3 windings=2 Xhl=3.770
~ wdg=1 bus=node_424151673.1.2.3 conn=delta Kv=13.8 Kva=75.0 %R=0.670
~ wdg=2 bus=node_419176189.1.2.3.4 conn=wye Kv=0.2200 Kva=75.0 %R=0.670
New Transformer.1374015754_1374015753 phases=3 windings=2 Xhl=3.770
~ wdg=1 bus=node_1668803377.1.2.3 conn=delta Kv=13.8 Kva=75.0 %R=0.670
~ wdg=2 bus=node_456592128.1.2.3.4 conn=wye Kv=0.2200 Kva=75.0 %R=0.670
New Transformer.324942919_1750487746 phases=3 windings=2 Xhl=3.770
~ wdg=1 bus=node_1758646409.1.2.3 conn=delta Kv=13.8 Kva=75.0 %R=0.670
~ wdg=2 bus=node_1999016209.1.2.3.4 conn=wye Kv=0.2200 Kva=75.0 %R=0.670
New Transformer.324943007_325066218 phases=3 windings=2 Xhl=3.770
~ wdg=1 bus=node_424113551.1.2.3 conn=delta Kv=13.8 Kva=75.0 %R=0.670
~ wdg=2 bus=node_418175138.1.2.3.4 conn=wye Kv=0.2200 Kva=75.0 %R=0.670
New Transformer.1366565773_1366565772 phases=3 windings=2 Xhl=3.770
~ wdg=1 bus=node_1661318902.1.2.3 conn=delta Kv=13.8 Kva=75.0 %R=0.670
~ wdg=2 bus=node_1661318887.1.2.3.4 conn=wye Kv=0.2200 Kva=75.0 %R=0.670
New Transformer.1366565814_1366565830 phases=3 windings=2 Xhl=3.770
~ wdg=1 bus=node_1661319322.1.2.3 conn=delta Kv=13.8 Kva=75.0 %R=0.670
~ wdg=2 bus=node_1661319318.1.2.3.4 conn=wye Kv=0.2200 Kva=75.0 %R=0.670
New Transformer.1366566979_1366566987 phases=3 windings=2 Xhl=3.770
~ wdg=1 bus=node_1661322265.1.2.3 conn=delta Kv=13.8 Kva=75.0 %R=0.670
~ wdg=2 bus=node_1661321250.1.2.3.4 conn=wye Kv=0.2200 Kva=75.0 %R=0.670
New Transformer.1953920361_1953920362 phases=3 windings=2 Xhl=3.770
~ wdg=1 bus=node_2271182547.1.2.3 conn=delta Kv=13.8 Kva=75.0 %R=0.670
~ wdg=2 bus=node_2271182523.1.2.3.4 conn=wye Kv=0.2200 Kva=75.0 %R=0.670
New Transformer.1700222376_1700222377 phases=3 windings=2 Xhl=3.770
~ wdg=1 bus=node_2026029687.1.2.3 conn=delta Kv=13.8 Kva=75.0 %R=0.670
~ wdg=2 bus=node_2026029624.1.2.3.4 conn=wye Kv=0.2200 Kva=75.0 %R=0.670
New Transformer.324942699_2447361006 phases=3 windings=2 Xhl=3.770
~ wdg=1 bus=node_424214397.1.2.3 conn=delta Kv=13.8 Kva=75.0 %R=0.670
~ wdg=2 bus=node_418968477.1.2.3.4 conn=wye Kv=0.2200 Kva=75.0 %R=0.670
New Transformer.509611956_1912071191 phases=3 windings=2 Xhl=3.770
~ wdg=1 bus=node_2295194905.1.2.3 conn=delta Kv=13.8 Kva=75.0 %R=0.670
~ wdg=2 bus=node_2295194892.1.2.3.4 conn=wye Kv=0.2200 Kva=75.0 %R=0.670
New Transformer.1990951995_1990951994 phases=3 windings=2 Xhl=3.770
~ wdg=1 bus=node_2309764264.1.2.3 conn=delta Kv=13.8 Kva=75.0 %R=0.670
~ wdg=2 bus=node_2309764544.1.2.3.4 conn=wye Kv=0.2200 Kva=75.0 %R=0.670
New Transformer.324943342_325214968 phases=3 windings=2 Xhl=3.770
~ wdg=1 bus=node_440316270.1.2.3 conn=delta Kv=13.8 Kva=75.0 %R=0.670
~ wdg=2 bus=node_419013079.1.2.3.4 conn=wye Kv=0.2200 Kva=75.0 %R=0.670
New Transformer.324943327_325217336 phases=3 windings=2 Xhl=3.770
~ wdg=1 bus=node_440984415.1.2.3 conn=delta Kv=13.8 Kva=75.0 %R=0.670
~ wdg=2 bus=node_419142474.1.2.3.4 conn=wye Kv=0.2200 Kva=75.0 %R=0.670
New Transformer.324943273_2565879931 phases=3 windings=2 Xhl=4.960
~ wdg=1 bus=node_441314231.1.2.3 conn=delta Kv=13.8 Kva=75.0 %R=0.305
~ wdg=2 bus=node_420307234.1.2.3.4 conn=wye Kv=0.2200 Kva=75.0 %R=0.305
New Transformer.512893044_512893045 phases=3 windings=2 Xhl=3.770
~ wdg=1 bus=node_783046047.1.2.3 conn=delta Kv=13.8 Kva=75.0 %R=0.670
~ wdg=2 bus=node_783045749.1.2.3.4 conn=wye Kv=0.2200 Kva=75.0 %R=0.670
New Transformer.324943737_325068471 phases=3 windings=2 Xhl=3.770
~ wdg=1 bus=node_439538917.1.2.3 conn=delta Kv=13.8 Kva=75.0 %R=0.670
~ wdg=2 bus=node_422838760.1.2.3.4 conn=wye Kv=0.2200 Kva=75.0 %R=0.670
New Transformer.324943931_325186179 phases=3 windings=2 Xhl=3.770
~ wdg=1 bus=node_444141623.1.2.3 conn=delta Kv=13.8 Kva=75.0 %R=0.670
~ wdg=2 bus=node_419142459.1.2.3.4 conn=wye Kv=0.2200 Kva=75.0 %R=0.670
New Transformer.324943852_1904839920 phases=3 windings=2 Xhl=3.770
~ wdg=1 bus=node_440319134.1.2.3 conn=delta Kv=13.8 Kva=75.0 %R=0.670
~ wdg=2 bus=node_418156668.1.2.3.4 conn=wye Kv=0.2200 Kva=75.0 %R=0.670
New Transformer.324943955_325326774 phases=3 windings=2 Xhl=3.770
~ wdg=1 bus=node_424152268.1.2.3 conn=delta Kv=13.8 Kva=75.0 %R=0.670
~ wdg=2 bus=node_75767515.1.2.3.4 conn=wye Kv=0.2200 Kva=75.0 %R=0.670
New Transformer.331365438_508018847 phases=3 windings=2 Xhl=3.770
~ wdg=1 bus=node_441176577.1.2.3 conn=delta Kv=13.8 Kva=75.0 %R=0.670
~ wdg=2 bus=node_422740630.1.2.3.4 conn=wye Kv=0.2200 Kva=75.0 %R=0.670
New Transformer.324493455_1148992829 phases=3 windings=2 Xhl=3.770
~ wdg=1 bus=node_424111986.1.2.3 conn=delta Kv=13.8 Kva=75.0 %R=0.670
~ wdg=2 bus=node_418311320.1.2.3.4 conn=wye Kv=0.2200 Kva=75.0 %R=0.670
New Transformer.324493437_325067088 phases=3 windings=2 Xhl=3.770
~ wdg=1 bus=node_434881832.1.2.3 conn=delta Kv=13.8 Kva=75.0 %R=0.670
~ wdg=2 bus=node_420905253.1.2.3.4 conn=wye Kv=0.2200 Kva=75.0 %R=0.670
New Transformer.324493444_325066409 phases=3 windings=2 Xhl=3.770
~ wdg=1 bus=node_424182514.1.2.3 conn=delta Kv=13.8 Kva=75.0 %R=0.670
~ wdg=2 bus=node_418898854.1.2.3.4 conn=wye Kv=0.2200 Kva=75.0 %R=0.670
New Transformer.324493433_2592340830 phases=3 windings=2 Xhl=4.960
~ wdg=1 bus=node_2871987409.1.2.3 conn=delta Kv=13.8 Kva=75.0 %R=0.305
~ wdg=2 bus=node_2871987427.1.2.3.4 conn=wye Kv=0.2200 Kva=75.0 %R=0.305
New Transformer.324657312_325218369 phases=3 windings=2 Xhl=3.770
~ wdg=1 bus=node_442558048.1.2.3 conn=delta Kv=13.8 Kva=75.0 %R=0.670
~ wdg=2 bus=node_419144778.1.2.3.4 conn=wye Kv=0.2200 Kva=75.0 %R=0.670
New Transformer.324493934_1298587203 phases=3 windings=2 Xhl=3.770
~ wdg=1 bus=node_440984964.1.2.3 conn=delta Kv=13.8 Kva=75.0 %R=0.670
~ wdg=2 bus=node_418936479.1.2.3.4 conn=wye Kv=0.2200 Kva=75.0 %R=0.670
New Transformer.324493958_2025720265 phases=3 windings=2 Xhl=3.770
~ wdg=1 bus=node_435595388.1.2.3 conn=delta Kv=13.8 Kva=75.0 %R=0.670
~ wdg=2 bus=node_418865418.1.2.3.4 conn=wye Kv=0.2200 Kva=75.0 %R=0.670
New Transformer.324493805_325217446 phases=3 windings=2 Xhl=3.770
~ wdg=1 bus=node_424268880.1.2.3 conn=delta Kv=13.8 Kva=75.0 %R=0.670
~ wdg=2 bus=node_418899079.1.2.3.4 conn=wye Kv=0.2200 Kva=75.0 %R=0.670
New Transformer.324493811_2446609556 phases=3 windings=2 Xhl=3.770
~ wdg=1 bus=node_424182604.1.2.3 conn=delta Kv=13.8 Kva=75.0 %R=0.670
~ wdg=2 bus=node_418180431.1.2.3.4 conn=wye Kv=0.2200 Kva=75.0 %R=0.670
New Transformer.2049972833_2049972832 phases=3 windings=2 Xhl=3.770
~ wdg=1 bus=node_437549568.1.2.3 conn=delta Kv=13.8 Kva=75.0 %R=0.670
~ wdg=2 bus=node_450350227.1.2.3.4 conn=wye Kv=0.2200 Kva=75.0 %R=0.670
New Transformer.324494369_325215529 phases=3 windings=2 Xhl=3.770
~ wdg=1 bus=node_441313381.1.2.3 conn=delta Kv=13.8 Kva=75.0 %R=0.670
~ wdg=2 bus=node_512338733.1.2.3.4 conn=wye Kv=0.2200 Kva=75.0 %R=0.670
New Transformer.324657490_1683175088 phases=3 windings=2 Xhl=3.770
~ wdg=1 bus=node_424268920.1.2.3 conn=delta Kv=13.8 Kva=75.0 %R=0.670
~ wdg=2 bus=node_418936167.1.2.3.4 conn=wye Kv=0.2200 Kva=75.0 %R=0.670
New Transformer.324494424_325280886 phases=3 windings=2 Xhl=3.770
~ wdg=1 bus=node_424181455.1.2.3 conn=delta Kv=13.8 Kva=75.0 %R=0.670
~ wdg=2 bus=node_471518007.1.2.3.4 conn=wye Kv=0.2200 Kva=75.0 %R=0.670
New Transformer.324495099_325187641 phases=3 windings=2 Xhl=3.770
~ wdg=1 bus=node_424182534.1.2.3 conn=delta Kv=13.8 Kva=75.0 %R=0.670
~ wdg=2 bus=node_418899565.1.2.3.4 conn=wye Kv=0.2200 Kva=75.0 %R=0.670
New Transformer.324494646_2357805344 phases=3 windings=2 Xhl=3.770
~ wdg=1 bus=node_424179291.1.2.3 conn=delta Kv=13.8 Kva=75.0 %R=0.670
~ wdg=2 bus=node_418936203.1.2.3.4 conn=wye Kv=0.2200 Kva=75.0 %R=0.670
New Transformer.324657057_325281267 phases=3 windings=2 Xhl=3.770
~ wdg=1 bus=node_440984814.1.2.3 conn=delta Kv=13.8 Kva=75.0 %R=0.670
~ wdg=2 bus=node_418939785.1.2.3.4 conn=wye Kv=0.2200 Kva=75.0 %R=0.670
New Transformer.324656841_325326798 phases=3 windings=2 Xhl=3.770
~ wdg=1 bus=node_424182538.1.2.3 conn=delta Kv=13.8 Kva=75.0 %R=0.670
~ wdg=2 bus=node_418899361.1.2.3.4 conn=wye Kv=0.2200 Kva=75.0 %R=0.670
New Transformer.324657267_325280167 phases=3 windings=2 Xhl=3.770
~ wdg=1 bus=node_439867496.1.2.3 conn=delta Kv=13.8 Kva=75.0 %R=0.670
~ wdg=2 bus=node_420446597.1.2.3.4 conn=wye Kv=0.2200 Kva=75.0 %R=0.670
New Transformer.324657230_1594460971 phases=3 windings=2 Xhl=3.770
~ wdg=1 bus=node_439704129.1.2.3 conn=delta Kv=13.8 Kva=75.0 %R=0.670
~ wdg=2 bus=node_418312328.1.2.3.4 conn=wye Kv=0.2200 Kva=75.0 %R=0.670
New Transformer.324657346_1832756512 phases=3 windings=2 Xhl=3.770
~ wdg=1 bus=node_439866122.1.2.3 conn=delta Kv=13.8 Kva=75.0 %R=0.670
~ wdg=2 bus=node_418312589.1.2.3.4 conn=wye Kv=0.2200 Kva=75.0 %R=0.670
New Transformer.324495630_325217447 phases=3 windings=2 Xhl=3.770
~ wdg=1 bus=node_424182738.1.2.3 conn=delta Kv=13.8 Kva=75.0 %R=0.670
~ wdg=2 bus=node_418898893.1.2.3.4 conn=wye Kv=0.2200 Kva=75.0 %R=0.670
New Transformer.324495518_325326801 phases=3 windings=2 Xhl=3.770
~ wdg=1 bus=node_441154570.1.2.3 conn=delta Kv=13.8 Kva=75.0 %R=0.670
~ wdg=2 bus=node_418899586.1.2.3.4 conn=wye Kv=0.2200 Kva=75.0 %R=0.670
New Transformer.2072679482_2072679481 phases=3 windings=2 Xhl=3.770
~ wdg=1 bus=node_435062435.1.2.3 conn=delta Kv=13.8 Kva=75.0 %R=0.670
~ wdg=2 bus=node_458221409.1.2.3.4 conn=wye Kv=0.2200 Kva=75.0 %R=0.670
New Transformer.324496450_325247780 phases=3 windings=2 Xhl=3.770
~ wdg=1 bus=node_425263940.1.2.3 conn=delta Kv=13.8 Kva=75.0 %R=0.670
~ wdg=2 bus=node_418310861.1.2.3.4 conn=wye Kv=0.2200 Kva=75.0 %R=0.670
New Transformer.324496411_1348848468 phases=3 windings=2 Xhl=3.770
~ wdg=1 bus=node_424215147.1.2.3 conn=delta Kv=13.8 Kva=75.0 %R=0.670
~ wdg=2 bus=node_418938876.1.2.3.4 conn=wye Kv=0.2200 Kva=75.0 %R=0.670
New Transformer.331472752_331572828 phases=3 windings=2 Xhl=3.770
~ wdg=1 bus=node_437192001.1.2.3 conn=delta Kv=13.8 Kva=75.0 %R=0.670
~ wdg=2 bus=node_422740633.1.2.3.4 conn=wye Kv=0.2200 Kva=75.0 %R=0.670
New Transformer.331474161_331723510 phases=3 windings=2 Xhl=3.770
~ wdg=1 bus=node_424747465.1.2.3 conn=delta Kv=13.8 Kva=75.0 %R=0.670
~ wdg=2 bus=node_422743354.1.2.3.4 conn=wye Kv=0.2200 Kva=75.0 %R=0.670
New Transformer.331570549_2221964793 phases=3 windings=2 Xhl=3.770
~ wdg=1 bus=node_438785949.1.2.3 conn=delta Kv=13.8 Kva=75.0 %R=0.670
~ wdg=2 bus=node_422743417.1.2.3.4 conn=wye Kv=0.2200 Kva=75.0 %R=0.670
New Transformer.441023997_441024812 phases=3 windings=2 Xhl=3.770
~ wdg=1 bus=node_710025940.1.2.3 conn=delta Kv=13.8 Kva=75.0 %R=0.670
~ wdg=2 bus=node_710025906.1.2.3.4 conn=wye Kv=0.2200 Kva=75.0 %R=0.670
New Transformer.2557469188_2557469187 phases=3 windings=2 Xhl=4.960
~ wdg=1 bus=node_2724166640.1.2.3 conn=delta Kv=13.8 Kva=75.0 %R=0.305
~ wdg=2 bus=node_2724166614.1.2.3.4 conn=wye Kv=0.2200 Kva=75.0 %R=0.305
New Transformer.2543925571_2543925570 phases=3 windings=2 Xhl=3.770
~ wdg=1 bus=node_2793807244.1.2.3 conn=delta Kv=13.8 Kva=75.0 %R=0.670
~ wdg=2 bus=node_2793807216.1.2.3.4 conn=wye Kv=0.2200 Kva=75.0 %R=0.670
New Transformer.2623226138_2623226137 phases=3 windings=2 Xhl=3.770
~ wdg=1 bus=node_2778157922.1.2.3 conn=delta Kv=13.8 Kva=75.0 %R=0.670
~ wdg=2 bus=node_2778157902.1.2.3.4 conn=wye Kv=0.2200 Kva=75.0 %R=0.670
New Transformer.2202229613_2202229612 phases=3 windings=2 Xhl=3.770
~ wdg=1 bus=node_2507863809.1.2.3 conn=delta Kv=13.8 Kva=75.0 %R=0.670
~ wdg=2 bus=node_2507863819.1.2.3.4 conn=wye Kv=0.2200 Kva=75.0 %R=0.670
New Transformer.2496179703_2496179704 phases=3 windings=2 Xhl=3.770
~ wdg=1 bus=node_2655328432.1.2.3 conn=delta Kv=13.8 Kva=75.0 %R=0.670
~ wdg=2 bus=node_2655328234.1.2.3.4 conn=wye Kv=0.2200 Kva=75.0 %R=0.670
New Transformer.325064418_325215465 phases=3 windings=2 Xhl=3.700
~ wdg=1 bus=node_425263950.1.2.3 conn=delta Kv=13.8 Kva=45.0 %R=0.760
~ wdg=2 bus=node_419812726.1.2.3.4 conn=wye Kv=0.2200 Kva=45.0 %R=0.760
New Transformer.325064682_325248608 phases=3 windings=2 Xhl=3.700
~ wdg=1 bus=node_441313716.1.2.3 conn=delta Kv=13.8 Kva=45.0 %R=0.760
~ wdg=2 bus=node_419000128.1.2.3.4 conn=wye Kv=0.2200 Kva=45.0 %R=0.760
New Transformer.325064719_325248539 phases=3 windings=2 Xhl=3.700
~ wdg=1 bus=node_424268905.1.2.3 conn=delta Kv=13.8 Kva=45.0 %R=0.760
~ wdg=2 bus=node_418901014.1.2.3.4 conn=wye Kv=0.2200 Kva=45.0 %R=0.760
New Transformer.325064905_1093243819 phases=3 windings=2 Xhl=3.700
~ wdg=1 bus=node_440011918.1.2.3 conn=delta Kv=13.8 Kva=45.0 %R=0.760
~ wdg=2 bus=node_418938687.1.2.3.4 conn=wye Kv=0.2200 Kva=45.0 %R=0.760
New Transformer.325064885_325326795 phases=3 windings=2 Xhl=3.700
~ wdg=1 bus=node_444141403.1.2.3 conn=delta Kv=13.8 Kva=45.0 %R=0.760
~ wdg=2 bus=node_418899058.1.2.3.4 conn=wye Kv=0.2200 Kva=45.0 %R=0.760
New Transformer.325064970_325248606 phases=3 windings=2 Xhl=3.700
~ wdg=1 bus=node_442559198.1.2.3 conn=delta Kv=13.8 Kva=45.0 %R=0.760
~ wdg=2 bus=node_418899673.1.2.3.4 conn=wye Kv=0.2200 Kva=45.0 %R=0.760
New Transformer.325065061_1148344420 phases=3 windings=2 Xhl=3.700
~ wdg=1 bus=node_424213372.1.2.3 conn=delta Kv=13.8 Kva=45.0 %R=0.760
~ wdg=2 bus=node_420952204.1.2.3.4 conn=wye Kv=0.2200 Kva=45.0 %R=0.760
New Transformer.325065247_325186379 phases=3 windings=2 Xhl=3.700
~ wdg=1 bus=node_440984615.1.2.3 conn=delta Kv=13.8 Kva=45.0 %R=0.760
~ wdg=2 bus=node_418936194.1.2.3.4 conn=wye Kv=0.2200 Kva=45.0 %R=0.760
New Transformer.325065330_325066407 phases=3 windings=2 Xhl=3.700
~ wdg=1 bus=node_441315371.1.2.3 conn=delta Kv=13.8 Kva=45.0 %R=0.760
~ wdg=2 bus=node_418898896.1.2.3.4 conn=wye Kv=0.2200 Kva=45.0 %R=0.760
New Transformer.325065388_1123791352 phases=3 windings=2 Xhl=3.700
~ wdg=1 bus=node_424214917.1.2.3 conn=delta Kv=13.8 Kva=45.0 %R=0.760
~ wdg=2 bus=node_418936416.1.2.3.4 conn=wye Kv=0.2200 Kva=45.0 %R=0.760
New Transformer.1039693613_1039693612 phases=3 windings=2 Xhl=3.700
~ wdg=1 bus=node_1340368123.1.2.3 conn=delta Kv=13.8 Kva=45.0 %R=0.760
~ wdg=2 bus=node_457052223.1.2.3.4 conn=wye Kv=0.2200 Kva=45.0 %R=0.760
New Transformer.1052860181_1052860180 phases=3 windings=2 Xhl=3.700
~ wdg=1 bus=node_1319496665.1.2.3 conn=delta Kv=13.8 Kva=45.0 %R=0.760
~ wdg=2 bus=node_1319496650.1.2.3.4 conn=wye Kv=0.2200 Kva=45.0 %R=0.760
New Transformer.1052860240_1052860239 phases=3 windings=2 Xhl=3.700
~ wdg=1 bus=node_1319496167.1.2.3 conn=delta Kv=13.8 Kva=45.0 %R=0.760
~ wdg=2 bus=node_1319496137.1.2.3.4 conn=wye Kv=0.2200 Kva=45.0 %R=0.760
New Transformer.1052860696_1052860695 phases=3 windings=2 Xhl=3.700
~ wdg=1 bus=node_1319498418.1.2.3 conn=delta Kv=13.8 Kva=45.0 %R=0.760
~ wdg=2 bus=node_1319498374.1.2.3.4 conn=wye Kv=0.2200 Kva=45.0 %R=0.760
New Transformer.1052860724_1052860723 phases=3 windings=2 Xhl=3.700
~ wdg=1 bus=node_1319497811.1.2.3 conn=delta Kv=13.8 Kva=45.0 %R=0.760
~ wdg=2 bus=node_1319497656.1.2.3.4 conn=wye Kv=0.2200 Kva=45.0 %R=0.760
New Transformer.1052860066_1052860065 phases=3 windings=2 Xhl=3.700
~ wdg=1 bus=node_1319495318.1.2.3 conn=delta Kv=13.8 Kva=45.0 %R=0.760
~ wdg=2 bus=node_1319495287.1.2.3.4 conn=wye Kv=0.2200 Kva=45.0 %R=0.760
New Transformer.1052860103_1052860102 phases=3 windings=2 Xhl=3.700
~ wdg=1 bus=node_1319495902.1.2.3 conn=delta Kv=13.8 Kva=45.0 %R=0.760
~ wdg=2 bus=node_1319495774.1.2.3.4 conn=wye Kv=0.2200 Kva=45.0 %R=0.760
New Transformer.1052860114_1052860113 phases=3 windings=2 Xhl=3.700
~ wdg=1 bus=node_1319497156.1.2.3 conn=delta Kv=13.8 Kva=45.0 %R=0.760
~ wdg=2 bus=node_1319496865.1.2.3.4 conn=wye Kv=0.2200 Kva=45.0 %R=0.760
New Transformer.1053314167_1053314166 phases=3 windings=2 Xhl=3.700
~ wdg=1 bus=node_1319928768.1.2.3 conn=delta Kv=13.8 Kva=45.0 %R=0.760
~ wdg=2 bus=node_1319928943.1.2.3.4 conn=wye Kv=0.2200 Kva=45.0 %R=0.760
New Transformer.324659167_325281229 phases=3 windings=2 Xhl=3.700
~ wdg=1 bus=node_441154060.1.2.3 conn=delta Kv=13.8 Kva=45.0 %R=0.760
~ wdg=2 bus=node_418900591.1.2.3.4 conn=wye Kv=0.2200 Kva=45.0 %R=0.760
New Transformer.324659019_325216579 phases=3 windings=2 Xhl=3.700
~ wdg=1 bus=node_442558503.1.2.3 conn=delta Kv=13.8 Kva=45.0 %R=0.760
~ wdg=2 bus=node_420551640.1.2.3.4 conn=wye Kv=0.2200 Kva=45.0 %R=0.760
New Transformer.324659126_1912294264 phases=3 windings=2 Xhl=3.700
~ wdg=1 bus=node_439866202.1.2.3 conn=delta Kv=13.8 Kva=45.0 %R=0.760
~ wdg=2 bus=node_419675749.1.2.3.4 conn=wye Kv=0.2200 Kva=45.0 %R=0.760
New Transformer.1060498429_1060498428 phases=3 windings=2 Xhl=3.700
~ wdg=1 bus=node_1327297752.1.2.3 conn=delta Kv=13.8 Kva=45.0 %R=0.760
~ wdg=2 bus=node_1327297234.1.2.3.4 conn=wye Kv=0.2200 Kva=45.0 %R=0.760
New Transformer.1060498431_1060498432 phases=3 windings=2 Xhl=3.700
~ wdg=1 bus=node_1327297818.1.2.3 conn=delta Kv=13.8 Kva=45.0 %R=0.760
~ wdg=2 bus=node_1327297367.1.2.3.4 conn=wye Kv=0.2200 Kva=45.0 %R=0.760
New Transformer.1060498434_1060498435 phases=3 windings=2 Xhl=3.700
~ wdg=1 bus=node_1327297889.1.2.3 conn=delta Kv=13.8 Kva=45.0 %R=0.760
~ wdg=2 bus=node_1327297509.1.2.3.4 conn=wye Kv=0.2200 Kva=45.0 %R=0.760
New Transformer.324659026_1176564615 phases=3 windings=2 Xhl=3.700
~ wdg=1 bus=node_425420275.1.2.3 conn=delta Kv=13.8 Kva=45.0 %R=0.760
~ wdg=2 bus=node_419016109.1.2.3.4 conn=wye Kv=0.2200 Kva=45.0 %R=0.760
New Transformer.324659251_1592494413 phases=3 windings=2 Xhl=3.700
~ wdg=1 bus=node_439384849.1.2.3 conn=delta Kv=13.8 Kva=45.0 %R=0.760
~ wdg=2 bus=node_418311902.1.2.3.4 conn=wye Kv=0.2200 Kva=45.0 %R=0.760
New Transformer.324658600_325279321 phases=3 windings=2 Xhl=3.700
~ wdg=1 bus=node_424213582.1.2.3 conn=delta Kv=13.8 Kva=45.0 %R=0.760
~ wdg=2 bus=node_420904218.1.2.3.4 conn=wye Kv=0.2200 Kva=45.0 %R=0.760
New Transformer.324658792_325246363 phases=3 windings=2 Xhl=3.700
~ wdg=1 bus=node_425008770.1.2.3 conn=delta Kv=13.8 Kva=45.0 %R=0.760
~ wdg=2 bus=node_418416901.1.2.3.4 conn=wye Kv=0.2200 Kva=45.0 %R=0.760
New Transformer.324658732_325282776 phases=3 windings=2 Xhl=3.700
~ wdg=1 bus=node_425008540.1.2.3 conn=delta Kv=13.8 Kva=45.0 %R=0.760
~ wdg=2 bus=node_419082534.1.2.3.4 conn=wye Kv=0.2200 Kva=45.0 %R=0.760
New Transformer.324658821_1331762630 phases=3 windings=2 Xhl=3.700
~ wdg=1 bus=node_424214622.1.2.3 conn=delta Kv=13.8 Kva=45.0 %R=0.760
~ wdg=2 bus=node_418899481.1.2.3.4 conn=wye Kv=0.2200 Kva=45.0 %R=0.760
New Transformer.324658451_325186911 phases=3 windings=2 Xhl=3.700
~ wdg=1 bus=node_440820002.1.2.3 conn=delta Kv=13.8 Kva=45.0 %R=0.760
~ wdg=2 bus=node_419301889.1.2.3.4 conn=wye Kv=0.2200 Kva=45.0 %R=0.760
New Transformer.324658577_325065621 phases=3 windings=2 Xhl=3.700
~ wdg=1 bus=node_439539707.1.2.3 conn=delta Kv=13.8 Kva=45.0 %R=0.760
~ wdg=2 bus=node_418310504.1.2.3.4 conn=wye Kv=0.2200 Kva=45.0 %R=0.760
New Transformer.620869572_620869573 phases=3 windings=2 Xhl=3.700
~ wdg=1 bus=node_847861743.1.2.3 conn=delta Kv=13.8 Kva=45.0 %R=0.760
~ wdg=2 bus=node_889193119.1.2.3.4 conn=wye Kv=0.2200 Kva=45.0 %R=0.760
New Transformer.324659481_325187636 phases=3 windings=2 Xhl=3.700
~ wdg=1 bus=node_424214656.1.2.3 conn=delta Kv=13.8 Kva=45.0 %R=0.760
~ wdg=2 bus=node_418899166.1.2.3.4 conn=wye Kv=0.2200 Kva=45.0 %R=0.760
New Transformer.324659474_325326797 phases=3 windings=2 Xhl=3.700
~ wdg=1 bus=node_441312126.1.2.3 conn=delta Kv=13.8 Kva=45.0 %R=0.760
~ wdg=2 bus=node_418899562.1.2.3.4 conn=wye Kv=0.2200 Kva=45.0 %R=0.760
New Transformer.324659357_325218010 phases=3 windings=2 Xhl=3.700
~ wdg=1 bus=node_439050571.1.2.3 conn=delta Kv=13.8 Kva=45.0 %R=0.760
~ wdg=2 bus=node_419013628.1.2.3.4 conn=wye Kv=0.2200 Kva=45.0 %R=0.760
New Transformer.324660253_325187567 phases=3 windings=2 Xhl=3.700
~ wdg=1 bus=node_424213597.1.2.3 conn=delta Kv=13.8 Kva=45.0 %R=0.760
~ wdg=2 bus=node_419000200.1.2.3.4 conn=wye Kv=0.2200 Kva=45.0 %R=0.760
New Transformer.324660331_325248527 phases=3 windings=2 Xhl=3.700
~ wdg=1 bus=node_424214647.1.2.3 conn=delta Kv=13.8 Kva=45.0 %R=0.760
~ wdg=2 bus=node_418900924.1.2.3.4 conn=wye Kv=0.2200 Kva=45.0 %R=0.760
New Transformer.324660182_325281252 phases=3 windings=2 Xhl=3.700
~ wdg=1 bus=node_424217032.1.2.3 conn=delta Kv=13.8 Kva=45.0 %R=0.760
~ wdg=2 bus=node_418900759.1.2.3.4 conn=wye Kv=0.2200 Kva=45.0 %R=0.760
New Transformer.324660750_325217460 phases=3 windings=2 Xhl=3.700
~ wdg=1 bus=node_442560423.1.2.3 conn=delta Kv=13.8 Kva=45.0 %R=0.760
~ wdg=2 bus=node_418936470.1.2.3.4 conn=wye Kv=0.2200 Kva=45.0 %R=0.760
New Transformer.791643119_791643118 phases=3 windings=2 Xhl=3.700
~ wdg=1 bus=node_1063960965.1.2.3 conn=delta Kv=13.8 Kva=45.0 %R=0.760
~ wdg=2 bus=node_1063959735.1.2.3.4 conn=wye Kv=0.2200 Kva=45.0 %R=0.760
New Transformer.676790420_676790419 phases=3 windings=2 Xhl=3.700
~ wdg=1 bus=node_949420896.1.2.3 conn=delta Kv=13.8 Kva=45.0 %R=0.760
~ wdg=2 bus=node_949420773.1.2.3.4 conn=wye Kv=0.2200 Kva=45.0 %R=0.760
New Transformer.835884510_835884525 phases=3 windings=2 Xhl=3.700
~ wdg=1 bus=node_1105149496.1.2.3 conn=delta Kv=13.8 Kva=45.0 %R=0.760
~ wdg=2 bus=node_1105148901.1.2.3.4 conn=wye Kv=0.2200 Kva=45.0 %R=0.760
New Transformer.835883362_835883361 phases=3 windings=2 Xhl=3.700
~ wdg=1 bus=node_1105147771.1.2.3 conn=delta Kv=13.8 Kva=45.0 %R=0.760
~ wdg=2 bus=node_1105147637.1.2.3.4 conn=wye Kv=0.2200 Kva=45.0 %R=0.760
New Transformer.835884448_835884453 phases=3 windings=2 Xhl=3.700
~ wdg=1 bus=node_1105149765.1.2.3 conn=delta Kv=13.8 Kva=45.0 %R=0.760
~ wdg=2 bus=node_1105148262.1.2.3.4 conn=wye Kv=0.2200 Kva=45.0 %R=0.760
New Transformer.835884469_835884483 phases=3 windings=2 Xhl=3.700
~ wdg=1 bus=node_1105149419.1.2.3 conn=delta Kv=13.8 Kva=45.0 %R=0.760
~ wdg=2 bus=node_1105149067.1.2.3.4 conn=wye Kv=0.2200 Kva=45.0 %R=0.760
New Transformer.835884487_835884491 phases=3 windings=2 Xhl=3.700
~ wdg=1 bus=node_1105149394.1.2.3 conn=delta Kv=13.8 Kva=45.0 %R=0.760
~ wdg=2 bus=node_1105149033.1.2.3.4 conn=wye Kv=0.2200 Kva=45.0 %R=0.760
New Transformer.719330976_719330975 phases=3 windings=2 Xhl=3.700
~ wdg=1 bus=node_992888774.1.2.3 conn=delta Kv=13.8 Kva=45.0 %R=0.760
~ wdg=2 bus=node_992888857.1.2.3.4 conn=wye Kv=0.2200 Kva=45.0 %R=0.760
New Transformer.324798193_325187282 phases=3 windings=2 Xhl=3.700
~ wdg=1 bus=node_441312966.1.2.3 conn=delta Kv=13.8 Kva=45.0 %R=0.760
~ wdg=2 bus=node_419109032.1.2.3.4 conn=wye Kv=0.2200 Kva=45.0 %R=0.760
New Transformer.324798198_1482327447 phases=3 windings=2 Xhl=3.700
~ wdg=1 bus=node_440013907.1.2.3 conn=delta Kv=13.8 Kva=45.0 %R=0.760
~ wdg=2 bus=node_418312628.1.2.3.4 conn=wye Kv=0.2200 Kva=45.0 %R=0.760
New Transformer.736068954_736068953 phases=3 windings=2 Xhl=3.700
~ wdg=1 bus=node_1009802839.1.2.3 conn=delta Kv=13.8 Kva=45.0 %R=0.760
~ wdg=2 bus=node_1009802814.1.2.3.4 conn=wye Kv=0.2200 Kva=45.0 %R=0.760
New Transformer.736184979_736184978 phases=3 windings=2 Xhl=3.700
~ wdg=1 bus=node_1009901844.1.2.3 conn=delta Kv=13.8 Kva=45.0 %R=0.760
~ wdg=2 bus=node_1009901833.1.2.3.4 conn=wye Kv=0.2200 Kva=45.0 %R=0.760
New Transformer.736373950_736373949 phases=3 windings=2 Xhl=3.700
~ wdg=1 bus=node_1010116486.1.2.3 conn=delta Kv=13.8 Kva=45.0 %R=0.760
~ wdg=2 bus=node_1010116472.1.2.3.4 conn=wye Kv=0.2200 Kva=45.0 %R=0.760
New Transformer.736412524_736412523 phases=3 windings=2 Xhl=3.700
~ wdg=1 bus=node_1010163541.1.2.3 conn=delta Kv=13.8 Kva=45.0 %R=0.760
~ wdg=2 bus=node_1010163572.1.2.3.4 conn=wye Kv=0.2200 Kva=45.0 %R=0.760
New Transformer.324798258_325187573 phases=3 windings=2 Xhl=3.700
~ wdg=1 bus=node_441315406.1.2.3 conn=delta Kv=13.8 Kva=45.0 %R=0.760
~ wdg=2 bus=node_418936302.1.2.3.4 conn=wye Kv=0.2200 Kva=45.0 %R=0.760
New Transformer.324798262_2231613278 phases=3 windings=2 Xhl=3.700
~ wdg=1 bus=node_442558928.1.2.3 conn=delta Kv=13.8 Kva=45.0 %R=0.760
~ wdg=2 bus=node_418156638.1.2.3.4 conn=wye Kv=0.2200 Kva=45.0 %R=0.760
New Transformer.324798431_325186355 phases=3 windings=2 Xhl=3.700
~ wdg=1 bus=node_424268999.1.2.3 conn=delta Kv=13.8 Kva=45.0 %R=0.760
~ wdg=2 bus=node_418938390.1.2.3.4 conn=wye Kv=0.2200 Kva=45.0 %R=0.760
New Transformer.887252189_887252188 phases=3 windings=2 Xhl=3.700
~ wdg=1 bus=node_424180585.1.2.3 conn=delta Kv=13.8 Kva=45.0 %R=0.760
~ wdg=2 bus=node_456808284.1.2.3.4 conn=wye Kv=0.2200 Kva=45.0 %R=0.760
New Transformer.894191785_894191784 phases=3 windings=2 Xhl=3.700
~ wdg=1 bus=node_1158457589.1.2.3 conn=delta Kv=13.8 Kva=45.0 %R=0.760
~ wdg=2 bus=node_1158457707.1.2.3.4 conn=wye Kv=0.2200 Kva=45.0 %R=0.760
New Transformer.324202885_325187568 phases=3 windings=2 Xhl=3.700
~ wdg=1 bus=node_424214997.1.2.3 conn=delta Kv=13.8 Kva=45.0 %R=0.760
~ wdg=2 bus=node_419000203.1.2.3.4 conn=wye Kv=0.2200 Kva=45.0 %R=0.760
New Transformer.324202903_325218575 phases=3 windings=2 Xhl=3.700
~ wdg=1 bus=node_440983814.1.2.3 conn=delta Kv=13.8 Kva=45.0 %R=0.760
~ wdg=2 bus=node_418900963.1.2.3.4 conn=wye Kv=0.2200 Kva=45.0 %R=0.760
New Transformer.324799208_325065605 phases=3 windings=2 Xhl=3.700
~ wdg=1 bus=node_424213997.1.2.3 conn=delta Kv=13.8 Kva=45.0 %R=0.760
~ wdg=2 bus=node_419711321.1.2.3.4 conn=wye Kv=0.2200 Kva=45.0 %R=0.760
New Transformer.324799382_325247840 phases=3 windings=2 Xhl=3.700
~ wdg=1 bus=node_440982375.1.2.3 conn=delta Kv=13.8 Kva=45.0 %R=0.760
~ wdg=2 bus=node_420581754.1.2.3.4 conn=wye Kv=0.2200 Kva=45.0 %R=0.760
New Transformer.324799527_325217399 phases=3 windings=2 Xhl=3.700
~ wdg=1 bus=node_440161247.1.2.3 conn=delta Kv=13.8 Kva=45.0 %R=0.760
~ wdg=2 bus=node_418156635.1.2.3.4 conn=wye Kv=0.2200 Kva=45.0 %R=0.760
New Transformer.324799579_1700642995 phases=3 windings=2 Xhl=3.700
~ wdg=1 bus=node_424213786.1.2.3 conn=delta Kv=13.8 Kva=45.0 %R=0.760
~ wdg=2 bus=node_418865382.1.2.3.4 conn=wye Kv=0.2200 Kva=45.0 %R=0.760
New Transformer.324799635_1450534674 phases=3 windings=2 Xhl=3.700
~ wdg=1 bus=node_441466996.1.2.3 conn=delta Kv=13.8 Kva=45.0 %R=0.760
~ wdg=2 bus=node_418311233.1.2.3.4 conn=wye Kv=0.2200 Kva=45.0 %R=0.760
New Transformer.324799482_325215263 phases=3 windings=2 Xhl=3.700
~ wdg=1 bus=node_427471026.1.2.3 conn=delta Kv=13.8 Kva=45.0 %R=0.760
~ wdg=2 bus=node_420105010.1.2.3.4 conn=wye Kv=0.2200 Kva=45.0 %R=0.760
New Transformer.324203532_325218613 phases=3 windings=2 Xhl=3.700
~ wdg=1 bus=node_424214067.1.2.3 conn=delta Kv=13.8 Kva=45.0 %R=0.760
~ wdg=2 bus=node_75805025.1.2.3.4 conn=wye Kv=0.2200 Kva=45.0 %R=0.760
New Transformer.324203539_325281891 phases=3 windings=2 Xhl=3.700
~ wdg=1 bus=node_434524649.1.2.3 conn=delta Kv=13.8 Kva=45.0 %R=0.760
~ wdg=2 bus=node_478556649.1.2.3.4 conn=wye Kv=0.2200 Kva=45.0 %R=0.760
New Transformer.915077213_1488665430 phases=3 windings=2 Xhl=3.700
~ wdg=1 bus=node_1175680094.1.2.3 conn=delta Kv=13.8 Kva=45.0 %R=0.760
~ wdg=2 bus=node_1175680127.1.2.3.4 conn=wye Kv=0.2200 Kva=45.0 %R=0.760
New Transformer.324202967_325215333 phases=3 windings=2 Xhl=3.700
~ wdg=1 bus=node_424182349.1.2.3 conn=delta Kv=13.8 Kva=45.0 %R=0.760
~ wdg=2 bus=node_420931918.1.2.3.4 conn=wye Kv=0.2200 Kva=45.0 %R=0.760
New Transformer.324800156_325281237 phases=3 windings=2 Xhl=3.700
~ wdg=1 bus=node_425769319.1.2.3 conn=delta Kv=13.8 Kva=45.0 %R=0.760
~ wdg=2 bus=node_418899478.1.2.3.4 conn=wye Kv=0.2200 Kva=45.0 %R=0.760
New Transformer.324800077_325248532 phases=3 windings=2 Xhl=3.700
~ wdg=1 bus=node_424182548.1.2.3 conn=delta Kv=13.8 Kva=45.0 %R=0.760
~ wdg=2 bus=node_418899364.1.2.3.4 conn=wye Kv=0.2200 Kva=45.0 %R=0.760
New Transformer.324799773_864017217 phases=3 windings=2 Xhl=3.700
~ wdg=1 bus=node_425769559.1.2.3 conn=delta Kv=13.8 Kva=45.0 %R=0.760
~ wdg=2 bus=node_419109911.1.2.3.4 conn=wye Kv=0.2200 Kva=45.0 %R=0.760
New Transformer.324800001_325187619 phases=3 windings=2 Xhl=3.700
~ wdg=1 bus=node_440821607.1.2.3 conn=delta Kv=13.8 Kva=45.0 %R=0.760
~ wdg=2 bus=node_418865379.1.2.3.4 conn=wye Kv=0.2200 Kva=45.0 %R=0.760
New Transformer.324799721_2081525088 phases=3 windings=2 Xhl=3.700
~ wdg=1 bus=node_440315510.1.2.3 conn=delta Kv=13.8 Kva=45.0 %R=0.760
~ wdg=2 bus=node_418163539.1.2.3.4 conn=wye Kv=0.2200 Kva=45.0 %R=0.760
New Transformer.324800295_325280384 phases=3 windings=2 Xhl=3.700
~ wdg=1 bus=node_439704714.1.2.3 conn=delta Kv=13.8 Kva=45.0 %R=0.760
~ wdg=2 bus=node_418416850.1.2.3.4 conn=wye Kv=0.2200 Kva=45.0 %R=0.760
New Transformer.324203074_325280483 phases=3 windings=2 Xhl=3.700
~ wdg=1 bus=node_425010020.1.2.3 conn=delta Kv=13.8 Kva=45.0 %R=0.760
~ wdg=2 bus=node_418334052.1.2.3.4 conn=wye Kv=0.2200 Kva=45.0 %R=0.760
New Transformer.324203794_325283019 phases=3 windings=2 Xhl=3.700
~ wdg=1 bus=node_425009215.1.2.3 conn=delta Kv=13.8 Kva=45.0 %R=0.760
~ wdg=2 bus=node_418416940.1.2.3.4 conn=wye Kv=0.2200 Kva=45.0 %R=0.760
New Transformer.324203986_325218055 phases=3 windings=2 Xhl=3.700
~ wdg=1 bus=node_424151742.1.2.3 conn=delta Kv=13.8 Kva=45.0 %R=0.760
~ wdg=2 bus=node_418331100.1.2.3.4 conn=wye Kv=0.2200 Kva=45.0 %R=0.760
New Transformer.324800555_325217436 phases=3 windings=2 Xhl=3.700
~ wdg=1 bus=node_424268795.1.2.3 conn=delta Kv=13.8 Kva=45.0 %R=0.760
~ wdg=2 bus=node_418938384.1.2.3.4 conn=wye Kv=0.2200 Kva=45.0 %R=0.760
New Transformer.324800452_2018811227 phases=3 windings=2 Xhl=3.700
~ wdg=1 bus=node_2916747195.1.2.3 conn=delta Kv=13.8 Kva=45.0 %R=0.760
~ wdg=2 bus=node_2916747206.1.2.3.4 conn=wye Kv=0.2200 Kva=45.0 %R=0.760
New Transformer.1843865630_1843865629 phases=3 windings=2 Xhl=3.700
~ wdg=1 bus=node_2165945545.1.2.3 conn=delta Kv=13.8 Kva=45.0 %R=0.760
~ wdg=2 bus=node_2165945599.1.2.3.4 conn=wye Kv=0.2200 Kva=45.0 %R=0.760
New Transformer.324800526_325217064 phases=3 windings=2 Xhl=3.700
~ wdg=1 bus=node_440468235.1.2.3 conn=delta Kv=13.8 Kva=45.0 %R=0.760
~ wdg=2 bus=node_418311650.1.2.3.4 conn=wye Kv=0.2200 Kva=45.0 %R=0.760
New Transformer.324800387_1331131462 phases=3 windings=2 Xhl=3.700
~ wdg=1 bus=node_425769709.1.2.3 conn=delta Kv=13.8 Kva=45.0 %R=0.760
~ wdg=2 bus=node_418330608.1.2.3.4 conn=wye Kv=0.2200 Kva=45.0 %R=0.760
New Transformer.324800392_325065690 phases=3 windings=2 Xhl=3.700
~ wdg=1 bus=node_441155637.1.2.3 conn=delta Kv=13.8 Kva=45.0 %R=0.760
~ wdg=2 bus=node_418900990.1.2.3.4 conn=wye Kv=0.2200 Kva=45.0 %R=0.760
New Transformer.324800488_325247725 phases=3 windings=2 Xhl=3.700
~ wdg=1 bus=node_425010235.1.2.3 conn=delta Kv=13.8 Kva=45.0 %R=0.760
~ wdg=2 bus=node_418416904.1.2.3.4 conn=wye Kv=0.2200 Kva=45.0 %R=0.760
New Transformer.324800971_325215520 phases=3 windings=2 Xhl=3.700
~ wdg=1 bus=node_439864977.1.2.3 conn=delta Kv=13.8 Kva=45.0 %R=0.760
~ wdg=2 bus=node_419778732.1.2.3.4 conn=wye Kv=0.2200 Kva=45.0 %R=0.760
New Transformer.324800737_325068273 phases=3 windings=2 Xhl=3.700
~ wdg=1 bus=node_424213432.1.2.3 conn=delta Kv=13.8 Kva=45.0 %R=0.760
~ wdg=2 bus=node_420940971.1.2.3.4 conn=wye Kv=0.2200 Kva=45.0 %R=0.760
New Transformer.324800787_325186375 phases=3 windings=2 Xhl=3.700
~ wdg=1 bus=node_441315131.1.2.3 conn=delta Kv=13.8 Kva=45.0 %R=0.760
~ wdg=2 bus=node_418938435.1.2.3.4 conn=wye Kv=0.2200 Kva=45.0 %R=0.760
New Transformer.324800792_2658127733 phases=3 windings=2 Xhl=3.700
~ wdg=1 bus=node_424215237.1.2.3 conn=delta Kv=13.8 Kva=45.0 %R=0.760
~ wdg=2 bus=node_419000305.1.2.3.4 conn=wye Kv=0.2200 Kva=45.0 %R=0.760
New Transformer.324204554_325217448 phases=3 windings=2 Xhl=3.700
~ wdg=1 bus=node_424214452.1.2.3 conn=delta Kv=13.8 Kva=45.0 %R=0.760
~ wdg=2 bus=node_418936440.1.2.3.4 conn=wye Kv=0.2200 Kva=45.0 %R=0.760
New Transformer.324204617_2353919355 phases=3 windings=2 Xhl=3.700
~ wdg=1 bus=node_440820987.1.2.3 conn=delta Kv=13.8 Kva=45.0 %R=0.760
~ wdg=2 bus=node_418865349.1.2.3.4 conn=wye Kv=0.2200 Kva=45.0 %R=0.760
...